@<TRIPOS>MOLECULE
thr_t3 - prepared_molecule1
35   36    1
SMALL
USER_CHARGES


@<TRIPOS>ATOM
      1 C1         -6.8409   -8.0529   -4.3014 C.ar      1 LIG_       -0.1383 
      2 C2         -7.1451   -7.8390   -5.6456 C.ar      1 LIG_       -0.1270 
      3 C3         -7.6885   -8.8697   -6.4118 C.ar      1 LIG_        0.2199 
      4 C4         -7.8998  -10.1272   -5.8414 C.ar      1 LIG_       -0.1043 
      5 C5         -7.5891  -10.3403   -4.4983 C.ar      1 LIG_       -0.0730 
      6 C6         -7.0778   -9.3043   -3.7139 C.ar      1 LIG_        0.1200 
      7 O1         -6.8122   -9.5762   -2.3894 O.3       1 LIG_       -0.2850 
      8 C7         -7.0023   -8.6027   -1.4350 C.ar      1 LIG_        0.1882 
      9 C8         -5.9026   -7.9208   -0.9050 C.ar      1 LIG_       -0.0527 
     10 C9         -6.0817   -6.9764    0.1054 C.ar      1 LIG_       -0.0549 
     11 C10        -7.3572   -6.7058    0.6097 C.ar      1 LIG_       -0.0684 
     12 C11        -8.4552   -7.3749    0.0648 C.ar      1 LIG_       -0.0549 
     13 C12        -8.2821   -8.3207   -0.9425 C.ar      1 LIG_       -0.0527 
     14 I1         -9.9691   -9.3110   -1.6706 I         1 LIG_       -0.0420 
     15 C13        -7.6049   -5.6914    1.7237 C.3       1 LIG_       -0.1471 
     16 C14        -6.4732   -5.4074    2.7449 C.3       1 LIG_       -0.0283 
     17 C15        -6.9952   -4.5372    3.9191 C.2       1 LIG_        0.7260 
     18 O2         -7.3378   -3.3696    3.6271 O.co2     1 LIG_       -0.7123 
     19 O3         -7.0864   -5.0161    5.0740 O.co2     1 LIG_       -0.7123 
     20 N1         -5.8984   -6.7197    3.3087 N.4       1 LIG_        0.3533 
     21 I2         -3.9685   -8.3235   -1.5879 I         1 LIG_       -0.0420 
     22 I3         -8.6764  -11.7064   -6.9750 I         1 LIG_       -0.0798 
     23 O4         -8.0136   -8.6411   -7.7209 O.3       1 LIG_       -0.5445 
     24 HC1        -6.4271   -7.2424   -3.7200 H         1 LIG_        0.1434 
     25 HC2        -6.9712   -6.8680   -6.0860 H         1 LIG_        0.1544 
     26 HC5        -7.7602  -11.3109   -4.0557 H         1 LIG_        0.1614 
     27 HC9        -5.2195   -6.4661    0.4973 H         1 LIG_        0.1482 
     28 HC11       -9.4513   -7.1732    0.4338 H         1 LIG_        0.1482 
     29 H131       -8.4941   -6.0097    2.2687 H         1 LIG_        0.0712 
     30 H132       -7.8622   -4.7488    1.2461 H         1 LIG_        0.0712 
     31 HC14       -5.6106   -4.9460    2.2771 H         1 LIG_        0.0155 
     32 H1_1       -5.1356   -6.5217    3.9407 H         1 LIG_        0.1287 
     33 H1_2       -6.6135   -7.2334    3.8014 H         1 LIG_        0.1287 
     34 H1_3       -5.5504   -7.2929    2.5539 H         1 LIG_        0.1287 
     35 HO4        -8.4216   -9.4114   -8.1247 H         1 LIG_        0.4125 
@<TRIPOS>BOND
     1    1    6 ar   
     2    1    2 ar   
     3    1   24 1    
     4    2    3 ar   
     5    2   25 1    
     6    3    4 ar   
     7    3   23 1    
     8    4   22 1    
     9    4    5 ar   
    10    5    6 ar   
    11    5   26 1    
    12    6    7 1    
    13    7    8 1    
    14    8   13 ar   
    15    8    9 ar   
    16    9   21 1    
    17    9   10 ar   
    18   10   11 ar   
    19   10   27 1    
    20   11   12 ar   
    21   11   15 1    
    22   12   13 ar   
    23   12   28 1    
    24   13   14 1    
    25   15   16 1    
    26   15   29 1    
    27   15   30 1    
    28   16   20 1    
    29   16   17 1    
    30   16   31 1    
    31   17   18 2    
    32   17   19 1    
    33   20   32 1    
    34   20   33 1    
    35   20   34 1    
    36   23   35 1    
@<TRIPOS>SUBSTRUCTURE
     1 LIG_        1 GROUP             0 E     ****    0 ROOT    
